numpy>=1.20.0
pandas>=1.3.0
openpyxl>=3.0.0
# Note: PSS/E and its Python API (psspy, redirect) must be installed separately
# These are proprietary Siemens PTI software components